Circuit: * C:\Users\jakob\OneDrive - Aarhus universitet\CIV\SEM 2\IC\Assignment AB amp\Zener.asc

Warning: Multiple definitions of model "2scr375p" Type: BJT
Warning: Multiple definitions of model "bc857b" Type: BJT
Warning: Multiple definitions of model "bc847c" Type: BJT
Warning: Multiple definitions of model "bc847b" Type: BJT
Direct Newton iteration for .op point succeeded.

Date: Mon Nov 17 15:49:41 2025
Total elapsed time: 0.101 seconds.

tnom = 27
temp = 27
method = modified trap
totiter = 2126
traniter = 2090
tranpoints = 1046
accept = 1046
rejected = 0
matrix size = 6
fillins = 1
solver = Normal
Avg thread counts: 1.1/1.3/1.3/1.1
Matrix Compiler1: off  [0.1]/0.2/0.1
Matrix Compiler2: off  [0.1]/0.2/0.2

